goiania_leste_dss/TR4/CTMT_5007257.dss
! ==============================================================================
! ALIMENTADOR CTMT_5007257 - GOIANIA LESTE-21
! Subestacao: Trafo TR4 (GOL-S-TRF-TR4) | Barra MT: 6440 -> PAC_INI: 93360665007257
! ==============================================================================

! 1. Disjuntor de Saida MT do Alimentador
new line.DJ_5007257 phases=3 bus1=6440 bus2=93360665007257 switch=y r1=1e-4 x1=1e-4 length=0.001 units=km

! 2. Linhas de Media Tensao (MT)
new line.52875809 phases=3 bus1=80459255007257.1.2.3 bus2=80459335007257.1.2.3 r1=0.975 x1=0.47 length=0.03151 units=km normamps=152.0
new line.52875810 phases=3 bus1=80459345007257.1.2.3 bus2=80459335007257.1.2.3 r1=0.975 x1=0.47 length=0.033261 units=km normamps=152.0
new line.52875820 phases=3 bus1=80459235007257.1.2.3 bus2=80459495007257.1.2.3 r1=0.236 x1=0.27 length=0.041052 units=km normamps=456.0
new line.52875821 phases=3 bus1=80459495007257.1.2.3 bus2=80459505007257.1.2.3 r1=0.236 x1=0.27 length=0.043763 units=km normamps=456.0
new line.52875822 phases=3 bus1=80459505007257.1.2.3 bus2=80459515007257.1.2.3 r1=0.236 x1=0.27 length=0.037176 units=km normamps=456.0
new line.52875823 phases=3 bus1=80462125007257.1.2.3 bus2=80462135007257.1.2.3 r1=0.975 x1=0.47 length=0.033545 units=km normamps=152.0
new line.52875824 phases=3 bus1=80459345007257.1.2.3 bus2=80462155007257.1.2.3 r1=0.975 x1=0.47 length=0.032515 units=km normamps=152.0
new line.52875825 phases=3 bus1=80462145007257.1.2.3 bus2=80462155007257.1.2.3 r1=0.975 x1=0.47 length=0.018077 units=km normamps=152.0
new line.52875826 phases=3 bus1=80462135007257.1.2.3 bus2=80462145007257.1.2.3 r1=0.975 x1=0.47 length=0.046661 units=km normamps=152.0
new line.52875830 phases=3 bus1=80459685007257.1.2.3 bus2=80459675007257.1.2.3 r1=0.975 x1=0.47 length=0.025335 units=km normamps=152.0
new line.52875831 phases=3 bus1=80459245007257.1.2.3 bus2=80459685007257.1.2.3 r1=0.975 x1=0.47 length=0.037891 units=km normamps=152.0
new line.52875914 phases=3 bus1=80465985007257.1.2.3 bus2=80465945007257.1.2.3 r1=0.975 x1=0.47 length=0.007029 units=km normamps=152.0
new line.52875915 phases=3 bus1=80465915007257.1.2.3 bus2=80465995007257.1.2.3 r1=0.236 x1=0.27 length=0.031697 units=km normamps=456.0
new line.52875916 phases=3 bus1=80465995007257.1.2.3 bus2=80466005007257.1.2.3 r1=0.236 x1=0.27 length=0.030677 units=km normamps=456.0
new line.52875928 phases=3 bus1=80463995007257.1.2.3 bus2=80464015007257.1.2.3 r1=0.236 x1=0.27 length=0.008639 units=km normamps=456.0
new line.52875929 phases=3 bus1=80464015007257.1.2.3 bus2=80459235007257.1.2.3 r1=0.236 x1=0.27 length=0.035406 units=km normamps=456.0
new line.52875930 phases=3 bus1=80463995007257.1.2.3 bus2=80464025007257.1.2.3 r1=0.236 x1=0.27 length=0.039175 units=km normamps=456.0
new line.52875931 phases=3 bus1=80466005007257.1.2.3 bus2=80464035007257.1.2.3 r1=0.236 x1=0.27 length=0.036058 units=km normamps=456.0
new line.52875932 phases=3 bus1=80464035007257.1.2.3 bus2=80464045007257.1.2.3 r1=0.236 x1=0.27 length=0.029775 units=km normamps=456.0
new line.52875933 phases=3 bus1=80464045007257.1.2.3 bus2=80464055007257.1.2.3 r1=0.236 x1=0.27 length=0.028792 units=km normamps=456.0
new line.52875934 phases=3 bus1=80464055007257.1.2.3 bus2=80464075007257.1.2.3 r1=0.236 x1=0.27 length=0.018854 units=km normamps=456.0
new line.52875935 phases=3 bus1=80464075007257.1.2.3 bus2=80464065007257.1.2.3 r1=0.236 x1=0.27 length=0.024269 units=km normamps=456.0
new line.52875936 phases=3 bus1=80464065007257.1.2.3 bus2=80459245007257.1.2.3 r1=1.551 x1=0.49 length=0.035796 units=km normamps=114.0
new line.52875937 phases=3 bus1=80464075007257.1.2.3 bus2=80464085007257.1.2.3 r1=0.236 x1=0.27 length=0.01464 units=km normamps=456.0
new line.52875938 phases=3 bus1=80464085007257.1.2.3 bus2=88536325007257.1.2.3 r1=0.975 x1=0.47 length=0.02636 units=km normamps=152.0
new line.52875939 phases=3 bus1=80464095007257.1.2.3 bus2=80459255007257.1.2.3 r1=0.975 x1=0.47 length=0.023106 units=km normamps=152.0
new line.52875940 phases=3 bus1=80464105007257.1.2.3 bus2=80464075007257.1.2.3 r1=0.236 x1=0.27 length=0.022072 units=km normamps=456.0
new line.52875941 phases=3 bus1=80464025007257.1.2.3 bus2=80464115007257.1.2.3 r1=0.236 x1=0.27 length=0.031531 units=km normamps=456.0
new line.52875942 phases=3 bus1=80464115007257.1.2.3 bus2=80464105007257.1.2.3 r1=0.236 x1=0.27 length=0.030759 units=km normamps=456.0
new line.52875998 phases=3 bus1=80465915007257.1.2.3 bus2=80464135007257.1.2.3 r1=0.236 x1=0.27 length=0.03938 units=km normamps=456.0
new line.52878186 phases=3 bus1=80470485007257.1.2.3 bus2=94291415007257.1.2.3 r1=0.236 x1=0.27 length=0.009144 units=km normamps=456.0
new line.52878187 phases=3 bus1=80470495007257.1.2.3 bus2=80470485007257.1.2.3 r1=0.236 x1=0.27 length=0.020854 units=km normamps=456.0
new line.52878189 phases=3 bus1=80470545007257.1.2.3 bus2=80470495007257.1.2.3 r1=0.975 x1=0.47 length=0.025257 units=km normamps=152.0
new line.52878190 phases=3 bus1=80470515007257.1.2.3 bus2=80470555007257.1.2.3 r1=0.975 x1=0.47 length=0.013107 units=km normamps=152.0
new line.52878191 phases=3 bus1=80470605007257.1.2.3 bus2=80470555007257.1.2.3 r1=0.975 x1=0.47 length=0.02074 units=km normamps=152.0
new line.52878192 phases=3 bus1=80470615007257.1.2.3 bus2=80470605007257.1.2.3 r1=0.975 x1=0.47 length=0.039683 units=km normamps=152.0
new line.52878193 phases=3 bus1=80470615007257.1.2.3 bus2=94511585007257.1.2.3 r1=0.975 x1=0.47 length=0.019512 units=km normamps=152.0
new line.52878195 phases=3 bus1=80470655007257.1.2.3 bus2=80470635007257.1.2.3 r1=0.975 x1=0.47 length=0.017524 units=km normamps=152.0
new line.52878213 phases=3 bus1=80470905007257.1.2.3 bus2=80470475007257.1.2.3 r1=0.236 x1=0.27 length=0.04394 units=km normamps=456.0
new line.52878214 phases=3 bus1=80470905007257.1.2.3 bus2=80470915007257.1.2.3 r1=0.975 x1=0.47 length=0.023754 units=km normamps=152.0
new line.52878215 phases=3 bus1=80470915007257.1.2.3 bus2=80470925007257.1.2.3 r1=0.975 x1=0.47 length=0.013385 units=km normamps=152.0
new line.52878217 phases=3 bus1=80470935007257.1.2.3 bus2=80470915007257.1.2.3 r1=0.975 x1=0.47 length=0.002596 units=km normamps=152.0
new line.52878231 phases=3 bus1=80469865007257.1.2.3 bus2=80469965007257.1.2.3 r1=0.236 x1=0.27 length=0.04677 units=km normamps=456.0
new line.52878232 phases=3 bus1=80469965007257.1.2.3 bus2=80469975007257.1.2.3 r1=0.236 x1=0.27 length=0.038806 units=km normamps=456.0
new line.52878233 phases=3 bus1=80469975007257.1.2.3 bus2=80469985007257.1.2.3 r1=0.236 x1=0.27 length=0.028205 units=km normamps=456.0
new line.52878234 phases=3 bus1=80469985007257.1.2.3 bus2=80469995007257.1.2.3 r1=0.236 x1=0.27 length=0.03215 units=km normamps=456.0
new line.52878242 phases=3 bus1=80470005007257.1.2.3 bus2=80469995007257.1.2.3 r1=1.551 x1=0.49 length=0.019284 units=km normamps=114.0
new line.52878243 phases=3 bus1=80469995007257.1.2.3 bus2=80470035007257.1.2.3 r1=0.236 x1=0.27 length=0.031481 units=km normamps=456.0
new line.52878310 phases=3 bus1=80469855007257.1.2.3 bus2=80469845007257.1.2.3 r1=0.236 x1=0.27 length=0.035659 units=km normamps=456.0
new line.52878311 phases=3 bus1=80469855007257.1.2.3 bus2=94678665007257.1.2.3 r1=0.236 x1=0.27 length=0.023044 units=km normamps=456.0
new line.52878361 phases=3 bus1=80469885007257.1.2.3 bus2=80469845007257.1.2.3 r1=0.236 x1=0.27 length=0.039181 units=km normamps=456.0
new line.52878468 phases=3 bus1=80470505007257.1.2.3 bus2=80470565007257.1.2.3 r1=0.236 x1=0.27 length=0.031273 units=km normamps=456.0
new line.52878469 phases=3 bus1=80470575007257.1.2.3 bus2=80470305007257.1.2.3 r1=0.732 x1=0.31 length=0.022189 units=km normamps=225.0
new line.52878470 phases=3 bus1=80470565007257.1.2.3 bus2=80470575007257.1.2.3 r1=0.236 x1=0.27 length=0.025161 units=km normamps=456.0
new line.52878471 phases=3 bus1=80470305007257.1.2.3 bus2=80470315007257.1.2.3 r1=0.732 x1=0.31 length=0.008581 units=km normamps=225.0
new line.52878504 phases=3 bus1=80471635007257.1.2.3 bus2=80471645007257.1.2.3 r1=0.732 x1=0.31 length=0.017509 units=km normamps=225.0
new line.52881322 phases=3 bus1=80495005007257B.1.2.3 bus2=91888365007257.1.2.3 r1=0.195 x1=0.4 length=0.007131 units=km normamps=419.0
new line.52887217 phases=3 bus1=80538055007257.1.2.3 bus2=80538065007257.1.2.3 r1=0.975 x1=0.47 length=0.038709 units=km normamps=152.0
new line.52887218 phases=3 bus1=80538065007257.1.2.3 bus2=80538075007257.1.2.3 r1=0.975 x1=0.47 length=0.02068 units=km normamps=152.0
new line.52887227 phases=3 bus1=80539975007257.1.2.3 bus2=80539965007257.1.2.3 r1=0.975 x1=0.47 length=0.042527 units=km normamps=152.0
new line.52887228 phases=3 bus1=80463855007257.1.2.3 bus2=80536645007257.1.2.3 r1=0.613 x1=0.45 length=0.032092 units=km normamps=203.0
new line.52887229 phases=3 bus1=80539995007257.1.2.3 bus2=80539985007257.1.2.3 r1=0.613 x1=0.45 length=0.039706 units=km normamps=203.0
new line.52887230 phases=3 bus1=80539985007257.1.2.3 bus2=80463855007257.1.2.3 r1=0.613 x1=0.45 length=0.02791 units=km normamps=203.0
new line.52887231 phases=3 bus1=80539975007257.1.2.3 bus2=80539995007257B.1.2.3 r1=0.975 x1=0.47 length=0.02135 units=km normamps=152.0
new line.52887232 phases=3 bus1=80465955007257B.1.2.3 bus2=94584005007257.1.2.3 r1=0.613 x1=0.45 length=0.011741 units=km normamps=203.0
new line.52887233 phases=3 bus1=80540005007257.1.2.3 bus2=80465955007257.1.2.3 r1=0.236 x1=0.27 length=0.017591 units=km normamps=456.0
new line.52887234 phases=3 bus1=80540015007257.1.2.3 bus2=80540005007257.1.2.3 r1=0.613 x1=0.45 length=0.004918 units=km normamps=203.0
new line.52887235 phases=3 bus1=80540025007257.1.2.3 bus2=80540005007257.1.2.3 r1=0.236 x1=0.27 length=0.010528 units=km normamps=456.0
new line.52887238 phases=3 bus1=80536965007257B.1.2.3 bus2=80540335007257.1.2.3 r1=0.613 x1=0.45 length=0.026237 units=km normamps=203.0
new line.52887239 phases=3 bus1=80540335007257.1.2.3 bus2=80540345007257.1.2.3 r1=0.613 x1=0.45 length=0.003446 units=km normamps=203.0
new line.52887240 phases=3 bus1=80540365007257.1.2.3 bus2=80538075007257.1.2.3 r1=0.975 x1=0.47 length=0.022863 units=km normamps=152.0
new line.52887241 phases=3 bus1=80540355007257.1.2.3 bus2=80540365007257.1.2.3 r1=0.975 x1=0.47 length=0.005176 units=km normamps=152.0
new line.52887242 phases=3 bus1=80540375007257.1.2.3 bus2=80540365007257.1.2.3 r1=0.975 x1=0.47 length=0.012647 units=km normamps=152.0
new line.52887243 phases=3 bus1=80540385007257.1.2.3 bus2=80540375007257.1.2.3 r1=0.975 x1=0.47 length=0.037027 units=km normamps=152.0
new line.52887244 phases=3 bus1=80540395007257.1.2.3 bus2=80540385007257.1.2.3 r1=0.975 x1=0.47 length=0.038329 units=km normamps=152.0
new line.52887245 phases=3 bus1=80540405007257.1.2.3 bus2=80540395007257.1.2.3 r1=0.975 x1=0.47 length=0.036812 units=km normamps=152.0
new line.52887332 phases=3 bus1=80537425007257.1.2.3 bus2=80537435007257.1.2.3 r1=0.236 x1=0.27 length=0.034295 units=km normamps=456.0
new line.52887333 phases=3 bus1=80537445007257.1.2.3 bus2=80537425007257.1.2.3 r1=0.975 x1=0.47 length=0.005436 units=km normamps=152.0
new line.52887334 phases=3 bus1=80537435007257.1.2.3 bus2=80537455007257.1.2.3 r1=0.236 x1=0.27 length=0.043379 units=km normamps=456.0
new line.52887335 phases=3 bus1=80537455007257.1.2.3 bus2=80537465007257.1.2.3 r1=0.236 x1=0.27 length=0.030674 units=km normamps=456.0
new line.52887336 phases=3 bus1=80537465007257.1.2.3 bus2=80537475007257.1.2.3 r1=0.236 x1=0.27 length=0.03196 units=km normamps=456.0
new line.52887347 phases=3 bus1=80539775007257.1.2.3 bus2=80539785007257.1.2.3 r1=0.975 x1=0.47 length=0.03677 units=km normamps=152.0
new line.52887348 phases=3 bus1=80539785007257.1.2.3 bus2=83853575007257.1.2.3 r1=0.975 x1=0.47 length=0.020729 units=km normamps=152.0
new line.52887349 phases=3 bus1=80539795007257.1.2.3 bus2=80539805007257.1.2.3 r1=0.975 x1=0.47 length=0.04083 units=km normamps=152.0
new line.52887350 phases=3 bus1=80539805007257.1.2.3 bus2=80539815007257.1.2.3 r1=0.975 x1=0.47 length=0.038819 units=km normamps=152.0
new line.52887352 phases=3 bus1=80536645007257.1.2.3 bus2=80536685007257.1.2.3 r1=0.613 x1=0.45 length=0.032092 units=km normamps=203.0
new line.52887353 phases=3 bus1=80536685007257.1.2.3 bus2=80536695007257.1.2.3 r1=0.613 x1=0.45 length=0.029486 units=km normamps=203.0
new line.52887354 phases=3 bus1=80536695007257.1.2.3 bus2=80536745007257.1.2.3 r1=0.613 x1=0.45 length=0.032087 units=km normamps=203.0
new line.52887355 phases=3 bus1=80536745007257.1.2.3 bus2=80536735007257.1.2.3 r1=0.613 x1=0.45 length=0.032336 units=km normamps=203.0
new line.52887356 phases=3 bus1=80536735007257.1.2.3 bus2=80536755007257.1.2.3 r1=0.613 x1=0.45 length=0.02245 units=km normamps=203.0
new line.52887357 phases=3 bus1=80536765007257.1.2.3 bus2=80536755007257.1.2.3 r1=0.613 x1=0.45 length=0.006579 units=km normamps=203.0
new line.52887358 phases=3 bus1=80536755007257.1.2.3 bus2=80536725007257.1.2.3 r1=0.613 x1=0.45 length=0.023541 units=km normamps=203.0
new line.52887359 phases=3 bus1=80536725007257.1.2.3 bus2=80536715007257.1.2.3 r1=0.613 x1=0.45 length=0.021571 units=km normamps=203.0
new line.52887360 phases=3 bus1=80539835007257.1.2.3 bus2=80539785007257.1.2.3 r1=0.975 x1=0.47 length=0.02175 units=km normamps=152.0
new line.52887361 phases=3 bus1=80539845007257.1.2.3 bus2=80539835007257.1.2.3 r1=0.975 x1=0.47 length=0.010568 units=km normamps=152.0
new line.52887362 phases=3 bus1=80539835007257.1.2.3 bus2=80539855007257.1.2.3 r1=0.975 x1=0.47 length=0.024588 units=km normamps=152.0
new line.52887363 phases=3 bus1=80539865007257.1.2.3 bus2=80539855007257.1.2.3 r1=0.975 x1=0.47 length=0.012236 units=km normamps=152.0
new line.52887364 phases=3 bus1=80539855007257.1.2.3 bus2=80539875007257.1.2.3 r1=0.975 x1=0.47 length=0.028324 units=km normamps=152.0
new line.52887365 phases=3 bus1=80539875007257.1.2.3 bus2=80539885007257.1.2.3 r1=0.975 x1=0.47 length=0.032466 units=km normamps=152.0
new line.52887366 phases=3 bus1=80539895007257.1.2.3 bus2=80539885007257.1.2.3 r1=0.975 x1=0.47 length=0.0114 units=km normamps=152.0
new line.52887367 phases=3 bus1=80539885007257.1.2.3 bus2=80539905007257.1.2.3 r1=0.975 x1=0.47 length=0.010642 units=km normamps=152.0
new line.52887368 phases=3 bus1=80539905007257.1.2.3 bus2=80539915007257.1.2.3 r1=0.975 x1=0.47 length=0.012329 units=km normamps=152.0
new line.52887369 phases=3 bus1=80536715007257.1.2.3 bus2=80536935007257.1.2.3 r1=0.613 x1=0.45 length=0.030909 units=km normamps=203.0
new line.52887370 phases=3 bus1=80536935007257.1.2.3 bus2=80536945007257.1.2.3 r1=0.613 x1=0.45 length=0.035663 units=km normamps=203.0
new line.52887371 phases=3 bus1=80536945007257.1.2.3 bus2=80467745007257.1.2.3 r1=0.613 x1=0.45 length=0.063891 units=km normamps=203.0
new line.52887372 phases=3 bus1=80467745007257.1.2.3 bus2=80467755007257.1.2.3 r1=0.613 x1=0.45 length=0.042813 units=km normamps=203.0
new line.52887373 phases=3 bus1=80467755007257.1.2.3 bus2=80467765007257.1.2.3 r1=0.613 x1=0.45 length=0.040588 units=km normamps=203.0
new line.52887374 phases=3 bus1=80467765007257.1.2.3 bus2=80536965007257.1.2.3 r1=0.613 x1=0.45 length=0.03473 units=km normamps=203.0
new line.52887375 phases=3 bus1=80536965007257.1.2.3 bus2=80536975007257.1.2.3 r1=0.613 x1=0.45 length=0.035546 units=km normamps=203.0
new line.52887376 phases=3 bus1=80537005007257.1.2.3 bus2=80536945007257.1.2.3 r1=0.613 x1=0.45 length=0.006579 units=km normamps=203.0
new line.52887378 phases=3 bus1=80537895007257.1.2.3 bus2=80537885007257.1.2.3 r1=0.613 x1=0.45 length=0.029499 units=km normamps=203.0
new line.52887379 phases=3 bus1=80537905007257.1.2.3 bus2=80537895007257.1.2.3 r1=0.613 x1=0.45 length=0.04129 units=km normamps=203.0
new line.52887380 phases=3 bus1=80537915007257.1.2.3 bus2=80536975007257.1.2.3 r1=0.613 x1=0.45 length=0.037863 units=km normamps=203.0
new line.52887381 phases=3 bus1=80537915007257.1.2.3 bus2=80537905007257.1.2.3 r1=0.613 x1=0.45 length=0.031511 units=km normamps=203.0
new line.52887382 phases=3 bus1=80537875007257.1.2.3 bus2=80537925007257.1.2.3 r1=0.613 x1=0.45 length=0.04083 units=km normamps=203.0
new line.52887383 phases=3 bus1=80537925007257.1.2.3 bus2=80537935007257.1.2.3 r1=0.613 x1=0.45 length=0.01949 units=km normamps=203.0
new line.52887384 phases=3 bus1=80537935007257.1.2.3 bus2=80537945007257.1.2.3 r1=0.613 x1=0.45 length=0.046813 units=km normamps=203.0
new line.52887385 phases=3 bus1=80537945007257B.1.2.3 bus2=80538315007257.1.2.3 r1=0.613 x1=0.45 length=0.022064 units=km normamps=203.0
new line.52887386 phases=3 bus1=80538325007257.1.2.3 bus2=80538315007257.1.2.3 r1=0.613 x1=0.45 length=0.010014 units=km normamps=203.0
new line.52887387 phases=3 bus1=80538315007257.1.2.3 bus2=80538335007257.1.2.3 r1=0.613 x1=0.45 length=0.02361 units=km normamps=203.0
new line.52887392 phases=3 bus1=80538455007257.1.2.3 bus2=80538445007257.1.2.3 r1=0.975 x1=0.47 length=0.024459 units=km normamps=152.0
new line.52887393 phases=3 bus1=80538455007257.1.2.3 bus2=80538465007257.1.2.3 r1=0.975 x1=0.47 length=0.02945 units=km normamps=152.0
new line.52887396 phases=3 bus1=80536985007257.1.2.3 bus2=80540725007257.1.2.3 r1=0.613 x1=0.45 length=0.006634 units=km normamps=203.0
new line.52887397 phases=3 bus1=80540725007257.1.2.3 bus2=80536975007257.1.2.3 r1=0.613 x1=0.45 length=0.036397 units=km normamps=203.0
new line.52887398 phases=3 bus1=80540735007257.1.2.3 bus2=80538335007257.1.2.3 r1=0.613 x1=0.45 length=0.052371 units=km normamps=203.0
new line.52887421 phases=3 bus1=80540415007257.1.2.3 bus2=80540405007257.1.2.3 r1=0.975 x1=0.47 length=0.034591 units=km normamps=152.0
new line.52887422 phases=3 bus1=80540425007257.1.2.3 bus2=80540415007257.1.2.3 r1=0.975 x1=0.47 length=0.025564 units=km normamps=152.0
new line.52887423 phases=3 bus1=80540435007257.1.2.3 bus2=80540425007257.1.2.3 r1=0.975 x1=0.47 length=0.02245 units=km normamps=152.0
new line.52887424 phases=3 bus1=80540445007257.1.2.3 bus2=80540435007257.1.2.3 r1=0.975 x1=0.47 length=0.021955 units=km normamps=152.0
new line.52887425 phases=3 bus1=80540455007257.1.2.3 bus2=80540445007257.1.2.3 r1=0.975 x1=0.47 length=0.02791 units=km normamps=152.0
new line.52887426 phases=3 bus1=80540605007257.1.2.3 bus2=80540575007257.1.2.3 r1=0.975 x1=0.47 length=0.048612 units=km normamps=152.0
new line.52887427 phases=3 bus1=80540625007257.1.2.3 bus2=80540605007257.1.2.3 r1=0.975 x1=0.47 length=0.063237 units=km normamps=152.0
new line.52887428 phases=3 bus1=80540635007257.1.2.3 bus2=80540625007257.1.2.3 r1=0.975 x1=0.47 length=0.08826 units=km normamps=152.0
new line.52887429 phases=3 bus1=80540645007257.1.2.3 bus2=80540635007257.1.2.3 r1=0.975 x1=0.47 length=0.090259 units=km normamps=152.0
new line.52887430 phases=3 bus1=80540655007257.1.2.3 bus2=80540645007257.1.2.3 r1=0.975 x1=0.47 length=0.007209 units=km normamps=152.0
new line.52887431 phases=3 bus1=80539935007257.1.2.3 bus2=80540675007257.1.2.3 r1=0.975 x1=0.47 length=0.012582 units=km normamps=152.0
new line.52887432 phases=3 bus1=80539935007257.1.2.3 bus2=80540685007257.1.2.3 r1=0.975 x1=0.47 length=0.003091 units=km normamps=152.0
new line.52887433 phases=3 bus1=80540675007257.1.2.3 bus2=80540695007257.1.2.3 r1=0.975 x1=0.47 length=0.002622 units=km normamps=152.0
new line.52887474 phases=3 bus1=80540465007257.1.2.3 bus2=80540455007257.1.2.3 r1=0.975 x1=0.47 length=0.030906 units=km normamps=152.0
new line.52887475 phases=3 bus1=80540475007257.1.2.3 bus2=80540465007257.1.2.3 r1=0.975 x1=0.47 length=0.03115 units=km normamps=152.0
new line.52887476 phases=3 bus1=80540485007257.1.2.3 bus2=80540475007257.1.2.3 r1=0.975 x1=0.47 length=0.038055 units=km normamps=152.0
new line.52887477 phases=3 bus1=80540495007257.1.2.3 bus2=80540485007257.1.2.3 r1=0.975 x1=0.47 length=0.03717 units=km normamps=152.0
new line.52887478 phases=3 bus1=80540505007257.1.2.3 bus2=80540495007257.1.2.3 r1=0.975 x1=0.47 length=0.039152 units=km normamps=152.0
new line.52887479 phases=3 bus1=80540515007257.1.2.3 bus2=80540505007257.1.2.3 r1=0.975 x1=0.47 length=0.050502 units=km normamps=152.0
new line.52887480 phases=3 bus1=80540525007257.1.2.3 bus2=80540515007257.1.2.3 r1=0.975 x1=0.47 length=0.014461 units=km normamps=152.0
new line.52887481 phases=3 bus1=80540535007257.1.2.3 bus2=80540525007257.1.2.3 r1=0.975 x1=0.47 length=0.042334 units=km normamps=152.0
new line.52887482 phases=3 bus1=80540545007257.1.2.3 bus2=80540535007257.1.2.3 r1=0.975 x1=0.47 length=0.037492 units=km normamps=152.0
new line.52887483 phases=3 bus1=80540555007257.1.2.3 bus2=80540545007257.1.2.3 r1=0.975 x1=0.47 length=0.039138 units=km normamps=152.0
new line.52887484 phases=3 bus1=80540565007257.1.2.3 bus2=80540555007257.1.2.3 r1=0.975 x1=0.47 length=0.038938 units=km normamps=152.0
new line.52887485 phases=3 bus1=80540575007257.1.2.3 bus2=80540565007257.1.2.3 r1=0.975 x1=0.47 length=0.037935 units=km normamps=152.0
new line.52887529 phases=3 bus1=80539935007257.1.2.3 bus2=80539915007257.1.2.3 r1=0.975 x1=0.47 length=0.011035 units=km normamps=152.0
new line.52887530 phases=3 bus1=80539915007257.1.2.3 bus2=80539925007257.1.2.3 r1=0.975 x1=0.47 length=0.003123 units=km normamps=152.0
new line.52887531 phases=3 bus1=80536695007257.1.2.3 bus2=80540755007257.1.2.3 r1=0.613 x1=0.45 length=0.015787 units=km normamps=203.0
new line.53174294 phases=3 bus1=80539955007257.1.2.3 bus2=80536635007257.1.2.3 r1=0.732 x1=0.31 length=0.039334 units=km normamps=225.0
new line.53174295 phases=3 bus1=80536635007257.1.2.3 bus2=82901355007257.1.2.3 r1=0.732 x1=0.31 length=0.030014 units=km normamps=225.0
new line.53174867 phases=3 bus1=82901355007257.1.2.3 bus2=82901385007257.1.2.3 r1=0.732 x1=0.31 length=0.035364 units=km normamps=225.0
new line.53174868 phases=3 bus1=82901385007257.1.2.3 bus2=82905185007257.1.2.3 r1=0.732 x1=0.31 length=0.010983 units=km normamps=225.0
new line.53834390 phases=3 bus1=83853575007257.1.2.3 bus2=80539795007257.1.2.3 r1=0.975 x1=0.47 length=0.023327 units=km normamps=152.0
new line.53834397 phases=3 bus1=83853575007257.1.2.3 bus2=83853585007257.1.2.3 r1=0.975 x1=0.47 length=0.013731 units=km normamps=152.0
new line.53835100 phases=3 bus1=80470575007257.1.2.3 bus2=87809695007257.1.2.3 r1=0.236 x1=0.27 length=0.013608 units=km normamps=456.0
new line.53835101 phases=3 bus1=80470585007257.1.2.3 bus2=83860195007257.1.2.3 r1=0.732 x1=0.31 length=0.025584 units=km normamps=225.0
new line.53835102 phases=3 bus1=80470585007257.1.2.3 bus2=80470595007257.1.2.3 r1=0.236 x1=0.27 length=0.020205 units=km normamps=456.0
new line.53835114 phases=3 bus1=83860275007257.1.2.3 bus2=83860335007257.1.2.3 r1=0.975 x1=0.47 length=0.02922 units=km normamps=152.0
new line.53835115 phases=3 bus1=83860335007257.1.2.3 bus2=83860365007257.1.2.3 r1=0.975 x1=0.47 length=0.035871 units=km normamps=152.0
new line.53846020 phases=3 bus1=83948885007257B.1.2.3 bus2=80538055007257.1.2.3 r1=0.975 x1=0.47 length=0.038803 units=km normamps=152.0
new line.53846022 phases=3 bus1=80538335007257.1.2.3 bus2=80538105007257.1.2.3 r1=0.975 x1=0.47 length=0.035241 units=km normamps=152.0
new line.53846023 phases=3 bus1=80538105007257.1.2.3 bus2=80538095007257.1.2.3 r1=0.975 x1=0.47 length=0.045554 units=km normamps=152.0
new line.53846025 phases=3 bus1=80538445007257.1.2.3 bus2=83948885007257.1.2.3 r1=0.975 x1=0.47 length=0.019812 units=km normamps=152.0
new line.53846026 phases=3 bus1=83948885007257.1.2.3 bus2=80538095007257.1.2.3 r1=0.975 x1=0.47 length=0.020469 units=km normamps=152.0
new line.54227796 phases=3 bus1=80464015007257.1.2.3 bus2=80463985007257.1.2.3 r1=0.975 x1=0.47 length=0.0227 units=km normamps=152.0
new line.54227797 phases=3 bus1=80463985007257.1.2.3 bus2=87069715007257.1.2.3 r1=0.975 x1=0.47 length=0.039298 units=km normamps=152.0
new line.54227798 phases=3 bus1=87069715007257.1.2.3 bus2=80464125007257.1.2.3 r1=0.975 x1=0.47 length=0.036586 units=km normamps=152.0
new line.54227799 phases=3 bus1=80464125007257.1.2.3 bus2=80463975007257.1.2.3 r1=0.975 x1=0.47 length=0.012457 units=km normamps=152.0
new line.54227800 phases=3 bus1=80463975007257.1.2.3 bus2=80459225007257.1.2.3 r1=0.975 x1=0.47 length=0.033679 units=km normamps=152.0
new line.54314451 phases=3 bus1=80472215007257.1.2.3 bus2=80472225007257.1.2.3 r1=0.236 x1=0.27 length=0.034092 units=km normamps=456.0
new line.54314453 phases=3 bus1=80472235007257.1.2.3 bus2=94200075007257.1.2.3 r1=0.236 x1=0.27 length=0.009739 units=km normamps=456.0
new line.54314454 phases=3 bus1=80472245007257.1.2.3 bus2=89358685007257.1.2.3 r1=0.236 x1=0.27 length=0.028022 units=km normamps=456.0
new line.54314457 phases=3 bus1=80472255007257.1.2.3 bus2=89603365007257.1.2.3 r1=0.236 x1=0.27 length=0.022849 units=km normamps=456.0
new line.54314458 phases=3 bus1=80469935007257.1.2.3 bus2=80469945007257.1.2.3 r1=0.236 x1=0.27 length=0.040674 units=km normamps=456.0
new line.54314459 phases=3 bus1=80469945007257.1.2.3 bus2=80469955007257B.1.2.3 r1=0.236 x1=0.27 length=0.037214 units=km normamps=456.0
new line.54314460 phases=3 bus1=80469945007257.1.2.3 bus2=87705675007257.1.2.3 r1=0.732 x1=0.31 length=0.024693 units=km normamps=225.0
new line.54373198 phases=3 bus1=83860365007257.1.2.3 bus2=88156785007257.1.2.3 r1=0.975 x1=0.47 length=0.024157 units=km normamps=152.0
new line.54373200 phases=3 bus1=88156785007257.1.2.3 bus2=88156795007257.1.2.3 r1=0.975 x1=0.47 length=0.041118 units=km normamps=152.0
new line.54373202 phases=3 bus1=88156795007257.1.2.3 bus2=88156805007257.1.2.3 r1=0.975 x1=0.47 length=0.020877 units=km normamps=152.0
new line.54373203 phases=3 bus1=88156805007257.1.2.3 bus2=88156815007257.1.2.3 r1=0.975 x1=0.47 length=0.001483 units=km normamps=152.0
new line.54421870 phases=3 bus1=88536325007257.1.2.3 bus2=80464095007257.1.2.3 r1=0.975 x1=0.47 length=0.008289 units=km normamps=152.0
new line.54421872 phases=3 bus1=88536325007257.1.2.3 bus2=88536335007257.1.2.3 r1=0.732 x1=0.31 length=0.008877 units=km normamps=225.0
new line.54426945 phases=3 bus1=80540675007257.1.2.3 bus2=89157285007257.1.2.3 r1=0.975 x1=0.47 length=0.026872 units=km normamps=152.0
new line.54327622 phases=3 bus1=87809695007257.1.2.3 bus2=80470585007257.1.2.3 r1=0.236 x1=0.27 length=0.033284 units=km normamps=456.0
new line.54327623 phases=3 bus1=87809695007257.1.2.3 bus2=87809705007257.1.2.3 r1=0.975 x1=0.47 length=0.041199 units=km normamps=152.0
new line.54327624 phases=3 bus1=87809705007257.1.2.3 bus2=93618255007257.1.2.3 r1=0.975 x1=0.47 length=0.01152 units=km normamps=152.0
new line.54327625 phases=3 bus1=87809715007257.1.2.3 bus2=85320115007257.1.2.3 r1=0.975 x1=0.47 length=0.02781 units=km normamps=152.0
new line.54327629 phases=3 bus1=85320115007257.1.2.3 bus2=87809725007257.1.2.3 r1=0.975 x1=0.47 length=0.004964 units=km normamps=152.0
new line.54336343 phases=3 bus1=80472205007257.1.2.3 bus2=87877085007257.1.2.3 r1=0.975 x1=0.47 length=0.022117 units=km normamps=152.0
new line.54340797 phases=3 bus1=87912245007257.1.2.3 bus2=80472255007257.1.2.3 r1=0.236 x1=0.27 length=0.016181 units=km normamps=456.0
new line.54359131 phases=3 bus1=80470525007257.1.2.3 bus2=88049745007257.1.2.3 r1=0.732 x1=0.31 length=0.005339 units=km normamps=225.0
new line.54364322 phases=3 bus1=80470035007257.1.2.3 bus2=80471405007257.1.2.3 r1=0.236 x1=0.27 length=0.036437 units=km normamps=456.0
new line.54364323 phases=3 bus1=80471405007257.1.2.3 bus2=80471285007257.1.2.3 r1=0.236 x1=0.27 length=0.036655 units=km normamps=456.0
new line.54364324 phases=3 bus1=80471285007257.1.2.3 bus2=90018215007257.1.2.3 r1=0.236 x1=0.27 length=0.021284 units=km normamps=456.0
new line.54364325 phases=3 bus1=80471275007257.1.2.3 bus2=94196385007257.1.2.3 r1=0.236 x1=0.27 length=0.00773 units=km normamps=456.0
...

! 3. Chaves Seccionadoras MT
new line.SC_5271037 phases=3 bus1=80469705007257.1.2.3 bus2=80469705007257B.1.2.3 switch=y r1=1e-4 x1=1e-4 length=0.001 units=km
new line.SC_5271904 phases=3 bus1=80537945007257.1.2.3 bus2=80537945007257B.1.2.3 switch=y r1=1e-4 x1=1e-4 length=0.001 units=km
new line.SC_5271966 phases=3 bus1=83948885007257.1.2.3 bus2=83948885007257B.1.2.3 switch=y r1=1e-4 x1=1e-4 length=0.001 units=km
new line.SC_5271972 phases=3 bus1=80539995007257.1.2.3 bus2=80539995007257B.1.2.3 switch=y r1=1e-4 x1=1e-4 length=0.001 units=km
new line.SC_5271974 phases=3 bus1=80536965007257.1.2.3 bus2=80536965007257B.1.2.3 switch=y r1=1e-4 x1=1e-4 length=0.001 units=km
new line.SC_5469594 phases=3 bus1=93366545007257.1.2.3 bus2=93366545007257B.1.2.3 switch=y r1=1e-4 x1=1e-4 length=0.001 units=km
new line.SC_5559822 phases=3 bus1=90384065007257.1.2.3 bus2=90384065007257B.1.2.3 switch=y r1=1e-4 x1=1e-4 length=0.001 units=km
new line.SC_5578430 phases=3 bus1=90964165007257.1.2.3 bus2=90964165007257B.1.2.3 switch=y r1=1e-4 x1=1e-4 length=0.001 units=km
new line.SC_5584015 phases=3 bus1=80495005007257.1.2.3 bus2=80495005007257B.1.2.3 switch=y r1=1e-4 x1=1e-4 length=0.001 units=km
open line.SC_5584015 1
new line.SC_5589519 phases=3 bus1=91344315007257.1.2.3 bus2=91344315007257B.1.2.3 switch=y r1=1e-4 x1=1e-4 length=0.001 units=km
new line.SC_5654408 phases=3 bus1=93356925007257.1.2.3 bus2=93356925007257B.1.2.3 switch=y r1=1e-4 x1=1e-4 length=0.001 units=km
new line.SC_5654451 phases=3 bus1=80439875007257.1.2.3 bus2=80439875007257B.1.2.3 switch=y r1=1e-4 x1=1e-4 length=0.001 units=km
new line.SC_5654458 phases=3 bus1=80469955007257.1.2.3 bus2=80469955007257B.1.2.3 switch=y r1=1e-4 x1=1e-4 length=0.001 units=km
new line.SC_5654952 phases=3 bus1=80465955007257.1.2.3 bus2=80465955007257B.1.2.3 switch=y r1=1e-4 x1=1e-4 length=0.001 units=km
new line.SC_5657519 phases=3 bus1=93357325007257.1.2.3 bus2=93357325007257B.1.2.3 switch=y r1=1e-4 x1=1e-4 length=0.001 units=km
new line.SC_5678422 phases=3 bus1=94075445007257.1.2.3 bus2=94075445007257B.1.2.3 switch=y r1=1e-4 x1=1e-4 length=0.001 units=km
open line.SC_5678422 1
new line.SC_5683242 phases=3 bus1=80471275007257.1.2.3 bus2=80471275007257B.1.2.3 switch=y r1=1e-4 x1=1e-4 length=0.001 units=km
new line.SC_5683273 phases=3 bus1=94196545007257.1.2.3 bus2=94196545007257B.1.2.3 switch=y r1=1e-4 x1=1e-4 length=0.001 units=km
open line.SC_5683273 1
new line.SC_5683511 phases=3 bus1=80472235007257.1.2.3 bus2=80472235007257B.1.2.3 switch=y r1=1e-4 x1=1e-4 length=0.001 units=km
new line.SC_5683512 phases=3 bus1=94200095007257.1.2.3 bus2=94200095007257B.1.2.3 switch=y r1=1e-4 x1=1e-4 length=0.001 units=km
open line.SC_5683512 1
new line.SC_5683723 phases=3 bus1=94193255007257.1.2.3 bus2=94193255007257B.1.2.3 switch=y r1=1e-4 x1=1e-4 length=0.001 units=km
new line.SC_5683725 phases=3 bus1=94193285007257.1.2.3 bus2=94193285007257B.1.2.3 switch=y r1=1e-4 x1=1e-4 length=0.001 units=km
open line.SC_5683725 1
new line.SC_5683741 phases=3 bus1=94205355007257.1.2.3 bus2=94205355007257B.1.2.3 switch=y r1=1e-4 x1=1e-4 length=0.001 units=km
open line.SC_5683741 1
new line.SC_5683753 phases=3 bus1=94205165007257.1.2.3 bus2=94205165007257B.1.2.3 switch=y r1=1e-4 x1=1e-4 length=0.001 units=km
new line.SC_5687376 phases=3 bus1=94291455007257.1.2.3 bus2=94291455007257B.1.2.3 switch=y r1=1e-4 x1=1e-4 length=0.001 units=km
open line.SC_5687376 1
new line.SC_5702393 phases=3 bus1=93298505007257.1.2.3 bus2=93298505007257B.1.2.3 switch=y r1=1e-4 x1=1e-4 length=0.001 units=km
new line.SC_5703557 phases=3 bus1=94583995007257.1.2.3 bus2=94583995007257B.1.2.3 switch=y r1=1e-4 x1=1e-4 length=0.001 units=km
new line.SC_5703558 phases=3 bus1=94584235007257.1.2.3 bus2=94584235007257B.1.2.3 switch=y r1=1e-4 x1=1e-4 length=0.001 units=km
open line.SC_5703558 1
new line.SC_5704283 phases=3 bus1=94613195007257.1.2.3 bus2=94613195007257B.1.2.3 switch=y r1=1e-4 x1=1e-4 length=0.001 units=km
open line.SC_5704283 1
new line.SC_5704284 phases=3 bus1=94613245007257.1.2.3 bus2=94613245007257B.1.2.3 switch=y r1=1e-4 x1=1e-4 length=0.001 units=km
open line.SC_5704284 1
new line.SC_5728978 phases=3 bus1=95534125007257.1.2.3 bus2=95534125007257B.1.2.3 switch=y r1=1e-4 x1=1e-4 length=0.001 units=km
open line.SC_5728978 1
new line.SC_5743267 phases=3 bus1=96161055007257.1.2.3 bus2=96161055007257B.1.2.3 switch=y r1=1e-4 x1=1e-4 length=0.001 units=km
open line.SC_5743267 1
new line.SC_5743288 phases=3 bus1=96162265007257.1.2.3 bus2=96162265007257B.1.2.3 switch=y r1=1e-4 x1=1e-4 length=0.001 units=km
open line.SC_5743288 1
new line.SC_GOLS013ACOPLAMC270 phases=3 bus1=I888888268445007257.1.2.3 bus2=I888888268445007257B.1.2.3 switch=y r1=1e-4 x1=1e-4 length=0.001 units=km
new line.SC_GOLS013BANCAP323BC3 phases=3 bus1=I888888312825007257.1.2.3 bus2=I888888312825007257B.1.2.3 switch=y r1=1e-4 x1=1e-4 length=0.001 units=km
new line.SC_GOLS013ACOPLAMD250 phases=3 bus1=I888888268455007257.1.2.3 bus2=I888888268455007257B.1.2.3 switch=y r1=1e-4 x1=1e-4 length=0.001 units=km
new line.SC_GOLS013BANCAP223BC2 phases=3 bus1=I888888312835007257.1.2.3 bus2=I888888312835007257B.1.2.3 switch=y r1=1e-4 x1=1e-4 length=0.001 units=km
new line.SC_SA0002845 phases=3 bus1=SA0002845.1.2.3 bus2=SA0002845B.1.2.3 switch=y r1=1e-4 x1=1e-4 length=0.001 units=km
new line.SC_SA0002854 phases=3 bus1=SA0002854.1.2.3 bus2=SA0002854B.1.2.3 switch=y r1=1e-4 x1=1e-4 length=0.001 units=km
new line.SC_DA0000221 phases=3 bus1=I888888268445007257.1.2.3 bus2=I888888268445007257B.1.2.3 switch=y r1=1e-4 x1=1e-4 length=0.001 units=km
new line.SC_DA0003797 phases=3 bus1=I888888268455007257.1.2.3 bus2=I888888499585007257B.1.2.3 switch=y r1=1e-4 x1=1e-4 length=0.001 units=km
new line.SC_DA0003799 phases=3 bus1=I888888499645007257B.1.2.3 bus2=I888888499665007257B.1.2.3 switch=y r1=1e-4 x1=1e-4 length=0.001 units=km
new line.SC_DA0003800 phases=3 bus1=I888888499685007257B.1.2.3 bus2=I888888499715007257B.1.2.3 switch=y r1=1e-4 x1=1e-4 length=0.001 units=km
new line.SC_DB0000540 phases=3 bus1=I888888312835007257.1.2.3 bus2=I888888312835007257B.1.2.3 switch=y r1=1e-4 x1=1e-4 length=0.001 units=km
new line.SC_DB0000564 phases=3 bus1=I888888481865007257.1.2.3 bus2=I888888481865007257B.1.2.3 switch=y r1=1e-4 x1=1e-4 length=0.001 units=km
new line.SC_SA0002784 phases=3 bus1=I888888481855007257.1.2.3 bus2=I888888481855007257B.1.2.3 switch=y r1=1e-4 x1=1e-4 length=0.001 units=km
new line.SC_SA0002846 phases=3 bus1=I888888477505007257.1.2.3 bus2=I888888477505007257B.1.2.3 switch=y r1=1e-4 x1=1e-4 length=0.001 units=km
new line.SC_SA0002847 phases=3 bus1=I888888477495007257.1.2.3 bus2=I888888477495007257B.1.2.3 switch=y r1=1e-4 x1=1e-4 length=0.001 units=km
new line.SC_SA0002855 phases=3 bus1=I888888268455007257.1.2.3 bus2=I888888499575007257B.1.2.3 switch=y r1=1e-4 x1=1e-4 length=0.001 units=km
new line.SC_SA0002856 phases=3 bus1=I888888499605007257.1.2.3 bus2=I888888499605007257B.1.2.3 switch=y r1=1e-4 x1=1e-4 length=0.001 units=km
new line.SC_SA0002859 phases=3 bus1=I888888499645007257.1.2.3 bus2=I888888499645007257B.1.2.3 switch=y r1=1e-4 x1=1e-4 length=0.001 units=km
new line.SC_SA0002860 phases=3 bus1=SA0002860.1.2.3 bus2=SA0002860B.1.2.3 switch=y r1=1e-4 x1=1e-4 length=0.001 units=km
new line.SC_SA0002861 phases=3 bus1=SA0002861.1.2.3 bus2=SA0002861B.1.2.3 switch=y r1=1e-4 x1=1e-4 length=0.001 units=km
new line.SC_SA0002862 phases=3 bus1=I888888499685007257.1.2.3 bus2=I888888499685007257B.1.2.3 switch=y r1=1e-4 x1=1e-4 length=0.001 units=km
new line.SC_SA0002863 phases=3 bus1=SA0002863.1.2.3 bus2=SA0002863B.1.2.3 switch=y r1=1e-4 x1=1e-4 length=0.001 units=km
new line.SC_SA0002864 phases=3 bus1=SA0002864.1.2.3 bus2=SA0002864B.1.2.3 switch=y r1=1e-4 x1=1e-4 length=0.001 units=km
new line.SC_SA0002865 phases=3 bus1=I888888499745007257.1.2.3 bus2=I888888499745007257B.1.2.3 switch=y r1=1e-4 x1=1e-4 length=0.001 units=km

! 4. Bancos de Capacitores MT
new capacitor.BA0000392 phases=3 bus1=I888888481905007257B.1.2.3 conn=wye kv=13.8 kvar=5400.0
new capacitor.BA0000393 phases=3 bus1=I888888312825007257.1.2.3 conn=wye kv=13.8 kvar=5400.0

! 5. Transformadores MT/BT de Distribuicao
new transformer.UNTRMT_5695404 phases=3 windings=2 %r=1.46 xhl=3.18 kva=112.0
~ wdg=1 bus=94452775007257.1.2.3 conn=delta kv=13.8
~ wdg=2 bus=94452775695404.1.2.3.0 conn=wye kv=0.38

new transformer.UNTRMT_5270921 phases=3 windings=2 %r=1.55 xhl=3.14 kva=75.0
~ wdg=1 bus=80459515007257.1.2.3 conn=delta kv=13.8
~ wdg=2 bus=80459515270921.1.2.3.0 conn=wye kv=0.38

new transformer.UNTRMT_5270922 phases=3 windings=2 %r=1.39 xhl=3.21 kva=150.0
~ wdg=1 bus=80459675007257.1.2.3 conn=delta kv=13.8
~ wdg=2 bus=80459675270922.1.2.3.0 conn=wye kv=0.38

new transformer.UNTRMT_5270923 phases=3 windings=2 %r=1.39 xhl=3.21 kva=150.0
~ wdg=1 bus=80462125007257.1.2.3 conn=delta kv=13.8
~ wdg=2 bus=80462125270923.1.2.3.0 conn=wye kv=0.38

new transformer.UNTRMT_5270958 phases=3 windings=2 %r=1.55 xhl=3.14 kva=75.0
~ wdg=1 bus=80464045007257.1.2.3 conn=delta kv=13.8
~ wdg=2 bus=80464045270958.1.2.3.0 conn=wye kv=0.38

new transformer.UNTRMT_5270976 phases=3 windings=2 %r=1.3 xhl=4.31 kva=225.0
~ wdg=1 bus=80470315007257.1.2.3 conn=delta kv=13.8
~ wdg=2 bus=80470315270976.1.2.3.0 conn=wye kv=0.38

new transformer.UNTRMT_5271015 phases=3 windings=2 %r=1.46 xhl=3.18 kva=112.0
~ wdg=1 bus=80471645007257.1.2.3 conn=delta kv=13.8
~ wdg=2 bus=80471645271015.1.2.3.0 conn=wye kv=0.38

new transformer.UNTRMT_5271022 phases=3 windings=2 %r=1.55 xhl=3.14 kva=75.0
~ wdg=1 bus=80470005007257.1.2.3 conn=delta kv=13.8
~ wdg=2 bus=80470005271022.1.2.3.0 conn=wye kv=0.38

new transformer.UNTRMT_5271023 phases=3 windings=2 %r=1.39 xhl=3.21 kva=150.0
~ wdg=1 bus=80470035007257.1.2.3 conn=delta kv=13.8
~ wdg=2 bus=80470035271023.1.2.3.0 conn=wye kv=0.38

new transformer.UNTRMT_5271024 phases=3 windings=2 %r=1.46 xhl=3.18 kva=112.0
~ wdg=1 bus=80469885007257.1.2.3 conn=delta kv=13.8
~ wdg=2 bus=80469885271024.1.2.3.0 conn=wye kv=0.38

new transformer.UNTRMT_5271025 phases=3 windings=2 %r=1.39 xhl=3.21 kva=150.0
~ wdg=1 bus=80470485007257.1.2.3 conn=delta kv=13.8
~ wdg=2 bus=80470485271025.1.2.3.0 conn=wye kv=0.38

new transformer.UNTRMT_5271058 phases=3 windings=2 %r=1.15 xhl=5.89 kva=112.0
~ wdg=1 bus=80470545007257.1.2.3 conn=delta kv=13.8
~ wdg=2 bus=80470545271058.1.2.3.0 conn=wye kv=0.38

new transformer.UNTRMT_5271059 phases=3 windings=2 %r=1.25 xhl=4.32 kva=300.0
~ wdg=1 bus=80470655007257.1.2.3 conn=delta kv=13.8
~ wdg=2 bus=80470655271059.1.2.3.0 conn=wye kv=0.38

new transformer.UNTRMT_5271060 phases=3 windings=2 %r=1.07 xhl=5.9 kva=112.0
~ wdg=1 bus=80470935007257.1.2.3 conn=delta kv=13.8
~ wdg=2 bus=80470935271060.1.2.3.0 conn=wye kv=0.38

new transformer.UNTRMT_5271061 phases=3 windings=2 %r=1.46 xhl=3.18 kva=112.0
~ wdg=1 bus=80469875007257.1.2.3 conn=delta kv=13.8
~ wdg=2 bus=80469875271061.1.2.3.0 conn=wye kv=0.38

new transformer.UNTRMT_5271936 phases=3 windings=2 %r=1.46 xhl=3.18 kva=112.0
~ wdg=1 bus=80537445007257.1.2.3 conn=delta kv=13.8
~ wdg=2 bus=80537445271936.1.2.3.0 conn=wye kv=0.38

new transformer.UNTRMT_5271937 phases=3 windings=2 %r=1.46 xhl=3.18 kva=112.0
~ wdg=1 bus=80540655007257.1.2.3 conn=delta kv=13.8
~ wdg=2 bus=80540655271937.1.2.3.0 conn=wye kv=0.38

new transformer.UNTRMT_5271939 phases=3 windings=2 %r=1.68 xhl=3.07 kva=45.0
~ wdg=1 bus=80537005007257.1.2.3 conn=delta kv=13.8
~ wdg=2 bus=80537005271939.1.2.3.0 conn=wye kv=0.38

new transformer.UNTRMT_5271940 phases=3 windings=2 %r=1.15 xhl=5.89 kva=500.0
~ wdg=1 bus=80540755007257.1.2.3 conn=delta kv=13.8
~ wdg=2 bus=80540755271940.1.2.3.0 conn=wye kv=0.38

new transformer.UNTRMT_5272041 phases=3 windings=2 %r=1.55 xhl=3.14 kva=75.0
~ wdg=1 bus=80537885007257.1.2.3 conn=delta kv=13.8
~ wdg=2 bus=80537885272041.1.2.3.0 conn=wye kv=0.38

new transformer.UNTRMT_5272051 phases=3 windings=2 %r=1.46 xhl=3.18 kva=112.0
~ wdg=1 bus=80539815007257.1.2.3 conn=delta kv=13.8
~ wdg=2 bus=80539815272051.1.2.3.0 conn=wye kv=0.38

new transformer.UNTRMT_5272052 phases=3 windings=2 %r=1.55 xhl=3.14 kva=75.0
~ wdg=1 bus=80539845007257.1.2.3 conn=delta kv=13.8
~ wdg=2 bus=80539845272052.1.2.3.0 conn=wye kv=0.38

new transformer.UNTRMT_5272053 phases=3 windings=2 %r=1.55 xhl=3.14 kva=75.0
~ wdg=1 bus=80539865007257.1.2.3 conn=delta kv=13.8
~ wdg=2 bus=80539865272053.1.2.3.0 conn=wye kv=0.38

new transformer.UNTRMT_5272054 phases=3 windings=2 %r=1.55 xhl=3.14 kva=75.0
~ wdg=1 bus=80539895007257.1.2.3 conn=delta kv=13.8
~ wdg=2 bus=80539895272054.1.2.3.0 conn=wye kv=0.38

new transformer.UNTRMT_5272055 phases=3 windings=2 %r=1.55 xhl=3.14 kva=75.0
~ wdg=1 bus=80539925007257.1.2.3 conn=delta kv=13.8
~ wdg=2 bus=80539925272055.1.2.3.0 conn=wye kv=0.38

new transformer.UNTRMT_5272056 phases=3 windings=2 %r=1.39 xhl=3.21 kva=150.0
~ wdg=1 bus=80540695007257.1.2.3 conn=delta kv=13.8
~ wdg=2 bus=80540695272056.1.2.3.0 conn=wye kv=0.38

new transformer.UNTRMT_5272057 phases=3 windings=2 %r=1.78 xhl=3.01 kva=30.0
~ wdg=1 bus=80540685007257.1.2.3 conn=delta kv=13.8
~ wdg=2 bus=80540685272057.1.2.3.0 conn=wye kv=0.38

new transformer.UNTRMT_5272058 phases=3 windings=2 %r=1.55 xhl=3.14 kva=75.0
~ wdg=1 bus=80540355007257.1.2.3 conn=delta kv=13.8
~ wdg=2 bus=80540355272058.1.2.3.0 conn=wye kv=0.38

new transformer.UNTRMT_5272059 phases=3 windings=2 %r=1.68 xhl=3.07 kva=45.0
~ wdg=1 bus=80540515007257.1.2.3 conn=delta kv=13.8
~ wdg=2 bus=80540515272059.1.2.3.0 conn=wye kv=0.38

new transformer.UNTRMT_5272060 phases=3 windings=2 %r=1.68 xhl=3.07 kva=45.0
~ wdg=1 bus=80540575007257.1.2.3 conn=delta kv=13.8
~ wdg=2 bus=80540575272060.1.2.3.0 conn=wye kv=0.38

new transformer.UNTRMT_5272061 phases=3 windings=2 %r=1.46 xhl=3.18 kva=112.0
~ wdg=1 bus=80539955007257.1.2.3 conn=delta kv=13.8
~ wdg=2 bus=80539955272061.1.2.3.0 conn=wye kv=0.38

new transformer.UNTRMT_5272062 phases=3 windings=2 %r=1.39 xhl=3.21 kva=150.0
~ wdg=1 bus=80540015007257.1.2.3 conn=delta kv=13.8
~ wdg=2 bus=80540015272062.1.2.3.0 conn=wye kv=0.38

new transformer.UNTRMT_5272063 phases=3 windings=2 %r=1.46 xhl=3.18 kva=112.0
~ wdg=1 bus=80536745007257.1.2.3 conn=delta kv=13.8
~ wdg=2 bus=80536745272063.1.2.3.0 conn=wye kv=0.38

new transformer.UNTRMT_5272064 phases=3 windings=2 %r=1.3 xhl=4.31 kva=225.0
~ wdg=1 bus=80536765007257.1.2.3 conn=delta kv=13.8
~ wdg=2 bus=80536765272064.1.2.3.0 conn=wye kv=0.38

new transformer.UNTRMT_5272065 phases=3 windings=2 %r=1.39 xhl=3.21 kva=150.0
~ wdg=1 bus=80540345007257.1.2.3 conn=delta kv=13.8
~ wdg=2 bus=80540345272065.1.2.3.0 conn=wye kv=0.38

new transformer.UNTRMT_5295862 phases=3 windings=2 %r=1.46 xhl=3.18 kva=112.0
~ wdg=1 bus=82905185007257.1.2.3 conn=delta kv=13.8
~ wdg=2 bus=82905185295862.1.2.3.0 conn=wye kv=0.38

new transformer.UNTRMT_5312614 phases=3 windings=2 %r=1.55 xhl=3.14 kva=75.0
~ wdg=1 bus=83853585007257.1.2.3 conn=delta kv=13.8
~ wdg=2 bus=83853585312614.1.2.3.0 conn=wye kv=0.38

new transformer.UNTRMT_5312740 phases=3 windings=2 %r=1.3 xhl=4.31 kva=225.0
~ wdg=1 bus=83860195007257.1.2.3 conn=delta kv=13.8
~ wdg=2 bus=83860195312740.1.2.3.0 conn=wye kv=0.38

new transformer.UNTRMT_5312743 phases=3 windings=2 %r=1.3 xhl=4.31 kva=225.0
~ wdg=1 bus=83860365007257.1.2.3 conn=delta kv=13.8
~ wdg=2 bus=83860365312743.1.2.3.0 conn=wye kv=0.38

new transformer.UNTRMT_5447885 phases=3 windings=2 %r=1.55 xhl=3.14 kva=75.0
~ wdg=1 bus=80459225007257.1.2.3 conn=delta kv=13.8
~ wdg=2 bus=80459225447885.1.2.3.0 conn=wye kv=0.38

new transformer.UNTRMT_5473864 phases=3 windings=2 %r=1.3 xhl=4.31 kva=225.0
~ wdg=1 bus=87809725007257.1.2.3 conn=delta kv=13.8
~ wdg=2 bus=87809725473864.1.2.3.0 conn=wye kv=0.38

new transformer.UNTRMT_5476150 phases=3 windings=2 %r=1.39 xhl=3.21 kva=150.0
~ wdg=1 bus=87877085007257.1.2.3 conn=delta kv=13.8
~ wdg=2 bus=87877085476150.1.2.3.0 conn=wye kv=0.38

new transformer.UNTRMT_5484518 phases=3 windings=2 %r=1.3 xhl=4.31 kva=225.0
~ wdg=1 bus=80471265007257.1.2.3 conn=delta kv=13.8
~ wdg=2 bus=80471265484518.1.2.3.0 conn=wye kv=0.38

new transformer.UNTRMT_5486841 phases=3 windings=2 %r=1.25 xhl=4.32 kva=300.0
~ wdg=1 bus=88156815007257.1.2.3 conn=delta kv=13.8
~ wdg=2 bus=88156815486841.1.2.3.0 conn=wye kv=0.38

new transformer.UNTRMT_5503362 phases=3 windings=2 %r=1.39 xhl=3.21 kva=150.0
~ wdg=1 bus=88639225007257.1.2.3 conn=delta kv=13.8
~ wdg=2 bus=88639225503362.1.2.3.0 conn=wye kv=0.38

new transformer.UNTRMT_5517709 phases=3 windings=2 %r=1.15 xhl=5.89 kva=500.0
~ wdg=1 bus=89103105007257.1.2.3 conn=delta kv=13.8
~ wdg=2 bus=89103105517709.1.2.3.0 conn=wye kv=0.38

new transformer.UNTRMT_5517724 phases=3 windings=2 %r=1.3 xhl=4.31 kva=225.0
~ wdg=1 bus=89103325007257.1.2.3 conn=delta kv=13.8
~ wdg=2 bus=89103325517724.1.2.3.0 conn=wye kv=0.38

new transformer.UNTRMT_5520921 phases=3 windings=2 %r=1.15 xhl=5.89 kva=500.0
~ wdg=1 bus=89217315007257.1.2.3 conn=delta kv=13.8
~ wdg=2 bus=89217315520921.1.2.3.0 conn=wye kv=0.38

new transformer.UNTRMT_5526495 phases=3 windings=2 %r=1.25 xhl=4.32 kva=300.0
~ wdg=1 bus=89358705007257.1.2.3 conn=delta kv=13.8
~ wdg=2 bus=89358705526495.1.2.3.0 conn=wye kv=0.38

new transformer.UNTRMT_5533407 phases=3 windings=2 %r=1.25 xhl=4.32 kva=300.0
~ wdg=1 bus=89603505007257.1.2.3 conn=delta kv=13.8
~ wdg=2 bus=89603505533407.1.2.3.0 conn=wye kv=0.38

new transformer.UNTRMT_5536721 phases=3 windings=2 %r=1.3 xhl=4.31 kva=225.0
~ wdg=1 bus=89756045007257.1.2.3 conn=delta kv=13.8
~ wdg=2 bus=89756045536721.1.2.3.0 conn=wye kv=0.38

new transformer.UNTRMT_5540313 phases=3 windings=2 %r=1.15 xhl=5.89 kva=500.0
~ wdg=1 bus=89854365007257.1.2.3 conn=delta kv=13.8
~ wdg=2 bus=89854365540313.1.2.3.0 conn=wye kv=0.38

new transformer.UNTRMT_5543771 phases=3 windings=2 %r=1.25 xhl=4.32 kva=300.0
~ wdg=1 bus=89941175007257.1.2.3 conn=delta kv=13.8
~ wdg=2 bus=89941175543771.1.2.3.0 conn=wye kv=0.38

new transformer.UNTRMT_5545964 phases=3 windings=2 %r=1.25 xhl=4.32 kva=300.0
~ wdg=1 bus=89979435007257.1.2.3 conn=delta kv=13.8
~ wdg=2 bus=89979435545964.1.2.3.0 conn=wye kv=0.38

new transformer.UNTRMT_5547582 phases=3 windings=2 %r=1.25 xhl=4.32 kva=300.0
~ wdg=1 bus=93747945007257.1.2.3 conn=delta kv=13.8
~ wdg=2 bus=93747945547582.1.2.3.0 conn=wye kv=0.38

new transformer.UNTRMT_5547801 phases=3 windings=2 %r=1.15 xhl=5.89 kva=500.0
~ wdg=1 bus=90025315007257.1.2.3 conn=delta kv=13.8
~ wdg=2 bus=90025315547801.1.2.3.0 conn=wye kv=0.38

new transformer.UNTRMT_5559823 phases=3 windings=2 %r=1.07 xhl=5.9 kva=750.0
~ wdg=1 bus=90384075007257.1.2.3 conn=delta kv=13.8
~ wdg=2 bus=90384075559823.1.2.3.0 conn=wye kv=0.38

new transformer.UNTRMT_5559824 phases=3 windings=2 %r=0.91 xhl=5.93 kva=75.0
~ wdg=1 bus=90384085007257.1.2.3 conn=delta kv=13.8
~ wdg=2 bus=90384085559824.1.2.3.0 conn=wye kv=0.38

new transformer.UNTRMT_5588250 phases=3 windings=2 %r=1.46 xhl=3.18 kva=112.0
~ wdg=1 bus=91244545007257.1.2.3 conn=delta kv=13.8
~ wdg=2 bus=91244545588250.1.2.3.0 conn=wye kv=0.38

new transformer.UNTRMT_5589521 phases=3 windings=2 %r=1.02 xhl=5.91 kva=1000.0
~ wdg=1 bus=91344985007257.1.2.3 conn=delta kv=13.8
~ wdg=2 bus=91344985589521.1.2.3.0 conn=wye kv=0.38

new transformer.UNTRMT_5626159 phases=3 windings=2 %r=1.15 xhl=5.89 kva=112.0
~ wdg=1 bus=92424105007257.1.2.3 conn=delta kv=13.8
~ wdg=2 bus=92424105626159.1.2.3.0 conn=wye kv=0.38

new transformer.UNTRMT_5638753 phases=3 windings=2 %r=1.15 xhl=5.89 kva=500.0
~ wdg=1 bus=92783935007257.1.2.3 conn=delta kv=13.8
~ wdg=2 bus=92783935638753.1.2.3.0 conn=wye kv=0.38

new transformer.UNTRMT_5664352 phases=3 windings=2 %r=1.25 xhl=4.32 kva=300.0
~ wdg=1 bus=93618255007257.1.2.3 conn=delta kv=13.8
~ wdg=2 bus=93618255664352.1.2.3.0 conn=wye kv=0.38

new transformer.UNTRMT_5684664 phases=3 windings=2 %r=1.3 xhl=4.31 kva=225.0
~ wdg=1 bus=80538455007257.1.2.3 conn=delta kv=13.8
~ wdg=2 bus=80538455684664.1.2.3.0 conn=wye kv=0.38

new transformer.UNTRMT_5686840 phases=3 windings=2 %r=1.3 xhl=4.31 kva=225.0
~ wdg=1 bus=94276215007257.1.2.3 conn=delta kv=13.8
~ wdg=2 bus=94276215686840.1.2.3.0 conn=wye kv=0.38

new transformer.UNTRMT_5723335 phases=3 windings=2 %r=1.25 xhl=4.32 kva=300.0
~ wdg=1 bus=95123705007257.1.2.3 conn=delta kv=13.8
~ wdg=2 bus=95123705723335.1.2.3.0 conn=wye kv=0.38

new transformer.UNTRMT_5742657 phases=3 windings=2 %r=1.15 xhl=5.89 kva=500.0
~ wdg=1 bus=96131445007257.1.2.3 conn=delta kv=13.8
~ wdg=2 bus=96131445742657.1.2.3.0 conn=wye kv=0.38

! 6. Linhas de Baixa Tensao (BT)
new line.52877429 phases=3 bus1=80459445270921.1.2.3.0 bus2=80459455270921.1.2.3.0 r1=0.975 x1=0.47 length=0.037627 units=km normamps=152.0
new line.52877431 phases=3 bus1=80459465270921.1.2.3.0 bus2=80459475270921.1.2.3.0 r1=0.975 x1=0.47 length=0.030393 units=km normamps=152.0
new line.52877450 phases=1 bus1=80459315270923.1.0 bus2=80459305270923.1.0 r1=0.975 x1=0.47 length=0.028874 units=km normamps=152.0
new line.52877506 phases=3 bus1=80459235270921.1.2.3.0 bus2=80459495270921.1.2.3.0 r1=0.613 x1=0.45 length=0.041052 units=km normamps=203.0
new line.52877513 phases=3 bus1=80459565270921.1.2.3.0 bus2=80459435270921.1.2.3.0 r1=0.975 x1=0.47 length=0.030691 units=km normamps=152.0
new line.52878049 phases=3 bus1=80459355447885.1.2.3.0 bus2=80459365447885.1.2.3.0 r1=0.991 x1=0.1 length=0.049483 units=km normamps=100.0
new line.52878635 phases=3 bus1=80471755271015.1.2.3.0 bus2=80471615271015.1.2.3.0 r1=0.991 x1=0.1 length=0.031696 units=km normamps=100.0
new line.52878787 phases=3 bus1=80470985271023.1.2.3.0 bus2=80470995271023.1.2.3.0 r1=0.975 x1=0.47 length=0.017554 units=km normamps=152.0
new line.52878794 phases=3 bus1=80472245271025.1.2.3.0 bus2=94200075271025.1.2.3.0 r1=0.975 x1=0.47 length=0.020793 units=km normamps=152.0
new line.52878804 phases=3 bus1=80469995271023.1.2.3.0 bus2=80470015271023.1.2.3.0 r1=0.991 x1=0.1 length=0.012133 units=km normamps=100.0
new line.52878806 phases=3 bus1=80469995271023.1.2.3.0 bus2=80470035271023.1.2.3.0 r1=0.613 x1=0.45 length=0.031481 units=km normamps=203.0
new line.52878833 phases=1 bus1=80471265271023.1.0 bus2=80471185271023.1.0 r1=0.975 x1=0.47 length=0.030326 units=km normamps=152.0
new line.52878851 phases=3 bus1=80468625271024.1.2.3.0 bus2=80469805271024.1.2.3.0 r1=0.975 x1=0.47 length=0.034792 units=km normamps=152.0
new line.52878855 phases=3 bus1=80469005271024.1.2.3.0 bus2=80468925271024.1.2.3.0 r1=0.975 x1=0.47 length=0.023539 units=km normamps=152.0
new line.52878856 phases=3 bus1=80469005271024.1.2.3.0 bus2=80469015271024.1.2.3.0 r1=0.975 x1=0.47 length=0.021689 units=km normamps=152.0
new line.52878860 phases=3 bus1=80469055271024.1.2.3.0 bus2=80469065271024.1.2.3.0 r1=0.613 x1=0.45 length=0.039056 units=km normamps=203.0
new line.52878867 phases=3 bus1=80469715271025.1.2.3.0 bus2=80469745271025.1.2.3.0 r1=0.991 x1=0.1 length=0.028943 units=km normamps=100.0
new line.52878869 phases=3 bus1=80469755271025.1.2.3.0 bus2=80469765271025.1.2.3.0 r1=0.991 x1=0.1 length=0.027816 units=km normamps=100.0
new line.52878870 phases=3 bus1=80469765271025.1.2.3.0 bus2=80469775271025.1.2.3.0 r1=0.991 x1=0.1 length=0.029865 units=km normamps=100.0
new line.52878871 phases=3 bus1=80469775271025.1.2.3.0 bus2=80469785271025.1.2.3.0 r1=0.991 x1=0.1 length=0.016457 units=km normamps=100.0
new line.52878903 phases=3 bus1=80469835271024.1.2.3.0 bus2=83174435271024.1.2.3.0 r1=0.975 x1=0.47 length=0.027945 units=km normamps=152.0
new line.52878910 phases=3 bus1=80469925271024.1.2.3.0 bus2=80468635271024.1.2.3.0 r1=0.975 x1=0.47 length=0.030875 units=km normamps=152.0
new line.52878912 phases=3 bus1=80468645271024.1.2.3.0 bus2=80468655271024.1.2.3.0 r1=0.991 x1=0.1 length=0.031714 units=km normamps=100.0
new line.52888184 phases=3 bus1=80537915272041.1.2.3.0 bus2=80536975272041.1.2.3.0 r1=0.613 x1=0.45 length=0.037863 units=km normamps=203.0
new line.52888199 phases=1 bus1=80538295272041.1.0 bus2=80538285272041.1.0 r1=0.975 x1=0.47 length=0.021786 units=km normamps=152.0
new line.52888207 phases=1 bus1=80537925272041.1.0 bus2=80537935272041.1.0 r1=0.975 x1=0.47 length=0.016422 units=km normamps=152.0
new line.52888211 phases=3 bus1=80471415272041.1.2.3.0 bus2=80537975272041.1.2.3.0 r1=1.551 x1=0.49 length=0.041302 units=km normamps=114.0
new line.52888215 phases=3 bus1=80537945272041.1.2.3.0 bus2=80538315272041.1.2.3.0 r1=0.991 x1=0.1 length=0.022064 units=km normamps=100.0
new line.52888218 phases=3 bus1=80538355272041.1.2.3.0 bus2=80538225272041.1.2.3.0 r1=0.975 x1=0.47 length=0.037943 units=km normamps=152.0
new line.52888346 phases=3 bus1=80538145272051.1.2.3.0 bus2=80538155272051.1.2.3.0 r1=0.975 x1=0.47 length=0.036381 units=km normamps=152.0
new line.52888450 phases=3 bus1=80537315272051.1.2.3.0 bus2=80537345272051.1.2.3.0 r1=0.975 x1=0.47 length=0.025574 units=km normamps=152.0
new line.52888451 phases=3 bus1=80537355272051.1.2.3.0 bus2=80537285272051.1.2.3.0 r1=0.975 x1=0.47 length=0.019103 units=km normamps=152.0
new line.52888459 phases=3 bus1=80539815272051.1.2.3.0 bus2=80539825272051.1.2.3.0 r1=0.613 x1=0.45 length=0.039858 units=km normamps=203.0
new line.52888462 phases=3 bus1=80539785272051.1.2.3.0 bus2=80539835272051.1.2.3.0 r1=0.975 x1=0.47 length=0.021965 units=km normamps=152.0
new line.52888534 phases=3 bus1=80540385272058.1.2.3.0 bus2=80540375272058.1.2.3.0 r1=0.975 x1=0.47 length=0.037027 units=km normamps=152.0
new line.52888540 phases=3 bus1=80540445272058.1.2.3.0 bus2=80540435272058.1.2.3.0 r1=0.975 x1=0.47 length=0.021955 units=km normamps=152.0
new line.52888550 phases=3 bus1=80540535272059.1.2.3.0 bus2=80540525272059.1.2.3.0 r1=0.975 x1=0.47 length=0.042334 units=km normamps=152.0
new line.52888557 phases=3 bus1=80540585272060.1.2.3.0 bus2=80540575272060.1.2.3.0 r1=0.613 x1=0.45 length=0.035304 units=km normamps=203.0
new line.52888558 phases=3 bus1=80540585272060.1.2.3.0 bus2=80540595272060.1.2.3.0 r1=0.984 x1=0.49 length=0.038152 units=km normamps=170.0
new line.52888559 phases=3 bus1=80540615272060.1.2.3.0 bus2=80540585272060.1.2.3.0 r1=0.975 x1=0.47 length=0.03732 units=km normamps=152.0
new line.52888564 phases=3 bus1=80536795272063.1.2.3.0 bus2=80536805272063.1.2.3.0 r1=0.975 x1=0.47 length=0.022426 units=km normamps=152.0
new line.52888571 phases=3 bus1=80537065272061.1.2.3.0 bus2=80537085272061.1.2.3.0 r1=1.551 x1=0.49 length=0.012813 units=km normamps=114.0
new line.52888576 phases=3 bus1=80537055272061.1.2.3.0 bus2=80537105272061.1.2.3.0 r1=0.975 x1=0.47 length=0.04687 units=km normamps=152.0
new line.52888580 phases=3 bus1=80537135272061.1.2.3.0 bus2=80537145272061.1.2.3.0 r1=0.975 x1=0.47 length=0.036498 units=km normamps=152.0
new line.52888584 phases=3 bus1=80539955272061.1.2.3.0 bus2=80536635272061.1.2.3.0 r1=0.613 x1=0.45 length=0.039328 units=km normamps=203.0
new line.52888596 phases=3 bus1=80537735272061.1.2.3.0 bus2=80537725272061.1.2.3.0 r1=0.975 x1=0.47 length=0.032106 units=km normamps=152.0
new line.52888598 phases=3 bus1=80471595272061.1.2.3.0 bus2=80537745272061.1.2.3.0 r1=0.975 x1=0.47 length=0.040346 units=km normamps=152.0
new line.52888599 phases=3 bus1=80471605272061.1.2.3.0 bus2=80537125272061.1.2.3.0 r1=0.975 x1=0.47 length=0.008795 units=km normamps=152.0
new line.52888601 phases=3 bus1=80471625272061.1.2.3.0 bus2=80471605272061.1.2.3.0 r1=0.975 x1=0.47 length=0.036309 units=km normamps=152.0
new line.52888604 phases=3 bus1=80471675272061.1.2.3.0 bus2=80471655272061.1.2.3.0 r1=0.975 x1=0.47 length=0.024507 units=km normamps=152.0
new line.52888609 phases=3 bus1=80536685272063.1.2.3.0 bus2=80536695272063.1.2.3.0 r1=0.613 x1=0.45 length=0.029486 units=km normamps=203.0
new line.52888612 phases=3 bus1=80536745272063.1.2.3.0 bus2=80536735272063.1.2.3.0 r1=0.613 x1=0.45 length=0.032336 units=km normamps=203.0
new line.52888619 phases=3 bus1=80536855272063.1.2.3.0 bus2=80536705272063.1.2.3.0 r1=0.975 x1=0.47 length=0.017019 units=km normamps=152.0
new line.52888626 phases=3 bus1=80536885272063.1.2.3.0 bus2=80536875272063.1.2.3.0 r1=0.975 x1=0.47 length=0.020168 units=km normamps=152.0
new line.54327627 phases=3 bus1=87809705271025.1.2.3.0 bus2=93618255271025.1.2.3.0 r1=0.975 x1=0.47 length=0.01152 units=km normamps=152.0
new line.54327628 phases=3 bus1=87809715271025.1.2.3.0 bus2=85320115271025.1.2.3.0 r1=0.975 x1=0.47 length=0.02781 units=km normamps=152.0
new line.54340796 phases=3 bus1=87912245271025.1.2.3.0 bus2=89358685271025.1.2.3.0 r1=0.975 x1=0.47 length=0.018493 units=km normamps=152.0
new line.54449012 phases=3 bus1=80471325503362.1.2.3.0 bus2=88639225503362.1.2.3.0 r1=0.975 x1=0.47 length=0.014438 units=km normamps=152.0
new line.54497657 phases=3 bus1=80470025271023.1.2.3.0 bus2=89102975271023.1.2.3.0 r1=0.991 x1=0.1 length=0.039652 units=km normamps=100.0
new line.54548613 phases=3 bus1=89487675271025.1.2.3.0 bus2=89487685271025.1.2.3.0 r1=0.991 x1=0.1 length=0.028655 units=km normamps=100.0
new line.55029493 phases=3 bus1=80471355503362.1.2.3.0 bus2=80471345503362.1.2.3.0 r1=0.975 x1=0.47 length=0.035787 units=km normamps=152.0
new line.55043237 phases=3 bus1=93369345271025.1.2.3.0 bus2=80470515271025.1.2.3.0 r1=0.991 x1=0.1 length=0.013768 units=km normamps=100.0
new line.55043238 phases=3 bus1=93369345271025.1.2.3.0 bus2=80470495271025.1.2.3.0 r1=0.506 x1=0.1 length=0.017505 units=km normamps=157.0
new line.55153624 phases=3 bus1=94205165272061.1.2.3.0 bus2=94205185272061.1.2.3.0 r1=0.991 x1=0.1 length=0.008219 units=km normamps=100.0
new line.55671804 phases=3 bus1=80464085270958.1.2.3.0 bus2=80464055270958.1.2.3.0 r1=1.05 x1=0.11 length=0.023958 units=km normamps=94.0
new line.55845060 phases=3 bus1=99439525271024.1.2.3.0 bus2=80469895271024.1.2.3.0 r1=0.506 x1=0.1 length=0.022208 units=km normamps=157.0
new line.55900496 phases=3 bus1=99867105271024.1.2.3.0 bus2=99867095271024.1.2.3.0 r1=0.991 x1=0.1 length=0.029717 units=km normamps=100.0
new line.52877362 phases=3 bus1=80464095270958.1.2.3.0 bus2=80459255270958.1.2.3.0 r1=0.975 x1=0.47 length=0.020038 units=km normamps=152.0
new line.52877364 phases=3 bus1=80464025270958.1.2.3.0 bus2=80464115270958.1.2.3.0 r1=0.613 x1=0.45 length=0.031531 units=km normamps=203.0
new line.52877366 phases=3 bus1=80463955447885.1.2.3.0 bus2=80464125447885.1.2.3.0 r1=0.991 x1=0.1 length=0.032141 units=km normamps=100.0
new line.52877367 phases=3 bus1=80464125447885.1.2.3.0 bus2=80463975447885.1.2.3.0 r1=0.506 x1=0.1 length=0.012458 units=km normamps=157.0
new line.52877370 phases=3 bus1=80465925270958.1.2.3.0 bus2=80465935270958.1.2.3.0 r1=0.975 x1=0.47 length=0.032609 units=km normamps=152.0
new line.52877373 phases=3 bus1=80465915270958.1.2.3.0 bus2=80465995270958.1.2.3.0 r1=0.975 x1=0.47 length=0.031697 units=km normamps=152.0
new line.52877377 phases=3 bus1=80466035270958.1.2.3.0 bus2=80466025270958.1.2.3.0 r1=0.991 x1=0.1 length=0.031847 units=km normamps=100.0
new line.52877378 phases=3 bus1=80463875270958.1.2.3.0 bus2=80466035270958.1.2.3.0 r1=0.991 x1=0.1 length=0.024711 units=km normamps=100.0
new line.52877384 phases=3 bus1=80466005270958.1.2.3.0 bus2=80464035270958.1.2.3.0 r1=0.506 x1=0.1 length=0.036058 units=km normamps=157.0
new line.52877385 phases=3 bus1=80464035270958.1.2.3.0 bus2=80464045270958.1.2.3.0 r1=0.506 x1=0.1 length=0.029775 units=km normamps=157.0
new line.52877386 phases=3 bus1=80464045270958.1.2.3.0 bus2=80464055270958.1.2.3.0 r1=0.506 x1=0.1 length=0.028792 units=km normamps=157.0
new line.52877390 phases=3 bus1=80465915270958.1.2.3.0 bus2=80464135270958.1.2.3.0 r1=0.975 x1=0.47 length=0.03938 units=km normamps=152.0
new line.52877428 phases=3 bus1=80459435270921.1.2.3.0 bus2=80459445270921.1.2.3.0 r1=0.975 x1=0.47 length=0.036179 units=km normamps=152.0
new line.52877430 phases=3 bus1=80459455270921.1.2.3.0 bus2=80459465270921.1.2.3.0 r1=0.975 x1=0.47 length=0.036268 units=km normamps=152.0
new line.52877437 phases=3 bus1=80462055270923.1.2.3.0 bus2=80462045270923.1.2.3.0 r1=0.975 x1=0.47 length=0.02712 units=km normamps=152.0
new line.52877441 phases=3 bus1=80459645270922.1.2.3.0 bus2=80459615270922.1.2.3.0 r1=0.613 x1=0.45 length=0.041304 units=km normamps=203.0
new line.52877443 phases=3 bus1=80459665270922.1.2.3.0 bus2=80459655270922.1.2.3.0 r1=0.613 x1=0.45 length=0.036182 units=km normamps=203.0
new line.52877444 phases=3 bus1=80459675270922.1.2.3.0 bus2=80459665270922.1.2.3.0 r1=0.613 x1=0.45 length=0.033182 units=km normamps=203.0
...